gridcapa-swe-runner-app/src/test/resources/export_cgmes/microGrid.xiidm
<?xml version="1.0" encoding="UTF-8"?>
<iidm:network xmlns:iidm="http://www.powsybl.org/schema/iidm/1_9" xmlns:slt="http://www.powsybl.org/schema/iidm/ext/slack_terminal/1_5" xmlns:crc="http://www.powsybl.org/schema/iidm/ext/coordinated_reactive_control/1_0" xmlns:ld="http://www.itesla_project.eu/schema/iidm/ext/load_detail/1_0" xmlns:ctc="http://www.powsybl.org/schema/iidm/ext/cgmes_tap_changers/1_0" xmlns:clbn="http://www.powsybl.org/schema/iidm/ext/cgmes_line_boundary_node/1_0" xmlns:cca="http://www.powsybl.org/schema/iidm/ext/cgmes_control_areas/1_0" xmlns:csshm="http://www.powsybl.org/schema/iidm/ext/cgmes_ssh_metadata/1_0" xmlns:bv="http://www.powsybl.org/schema/iidm/ext/base_voltage_mapping/1_0" xmlns:csm="http://www.powsybl.org/schema/iidm/ext/cgmes_sv_metadata/1_0" xmlns:cc="http://www.powsybl.org/schema/iidm/ext/cim_characteristics/1_0" id="urn:uuid:4f4a3f29-6892-49ea-bfc1-92051973c799" caseDate="2021-02-09T19:30:00.000Z" forecastDistance="1" sourceFormat="CGMES" minimumValidationLevel="STEADY_STATE_HYPOTHESIS">
    <iidm:property name="CGMES.EQ_ID" value="urn:uuid:9e7050a8-960b-4e1a-8e34-7f56bc2b2a7b"/>
    <iidm:property name="CGMES.SSH_ID" value="urn:uuid:1e239780-b5f9-4ed1-ad73-041bc406bcfc"/>
    <iidm:property name="CGMES.EQ_BD_ID" value="urn:uuid:321e66ed-63bb-41df-b5e8-899afbdaef97"/>
    <iidm:property name="CGMES.SSH_ID#0" value="urn:uuid:3a2a0416-c6a8-49a9-9f23-b8ec7cb29bae"/>
    <iidm:property name="CGMESModelDetail" value="node-breaker"/>
    <iidm:property name="CGMES.TP_BD_ID" value="urn:uuid:ada1e9f7-68ba-4dd1-bbce-00a652486c36"/>
    <iidm:property name="CGMES.EQ_BD_ID#0" value="urn:uuid:536f9bf1-3f8f-a546-87e3-7af2272f29b7"/>
    <iidm:property name="CGMES.TP_ID" value="urn:uuid:0ab8469f-4776-43fe-b1cb-2ceaf35c34f3"/>
    <iidm:substation id="_c49942d6-8b01-4b01-b5e8-f1180f84906c" name="PP_Amsterdam" country="NL" geographicalTags="TENNET TSO B.V.">
        <iidm:property name="CGMES.regionName" value="NL"/>
        <iidm:property name="CGMES.subRegionId" value="_e58fc3bf-8c9f-450d-b3f7-9a1d19bd3bb4"/>
        <iidm:property name="CGMES.regionId" value="_efc79870-d704-485e-a37b-0cf2e8e7657b"/>
        <iidm:voltageLevel id="_8d8a82ba-b5b0-4e94-861a-192af055f2b8" name="15.8" nominalV="15.75" lowVoltageLimit="14.175" highVoltageLimit="17.325" topologyKind="NODE_BREAKER">
            <iidm:nodeBreakerTopology>
                <iidm:busbarSection id="_53da4025-9d51-4eaf-b0d2-ce27fbe740d2" name="NL-Busbar_3" node="4">
                    <iidm:alias type="CGMES.Terminal1">_0f199d49-0093-4b51-b357-70371424d174</iidm:alias>
                </iidm:busbarSection>
                <iidm:busbarSection id="_e6d49e32-b634-4b86-a8ca-15159f1497b5" name="NL-Busbar_5" node="5">
                    <iidm:alias type="CGMES.Terminal1">_42800bad-5e47-42e6-b9b0-1fb8fc5831aa</iidm:alias>
                </iidm:busbarSection>
                <iidm:switch id="_9f984b04-1736-43d2-9122-3a17fc8aea5f_SW_fict" name="Terminal" fictitious="true" kind="BREAKER" retained="false" open="true" node1="9" node2="2">
                    <iidm:property name="CGMES.isCreatedForDisconnectedTerminal" value="true"/>
                </iidm:switch>
                <iidm:switch id="_f04ec73d-b94a-4b7e-a3d6-b1234fc37385_SW_fict" name="Terminal" fictitious="true" kind="BREAKER" retained="false" open="true" node1="10" node2="0">
                    <iidm:property name="CGMES.isCreatedForDisconnectedTerminal" value="true"/>
                </iidm:switch>
                <iidm:switch id="_5a094c9f-0af5-48dc-94e9-89c6c220023c" name="busbarcoupler 1" kind="BREAKER" retained="false" open="true" node1="9" node2="10">
                    <iidm:alias type="CGMES.Terminal2">_f04ec73d-b94a-4b7e-a3d6-b1234fc37385</iidm:alias>
                    <iidm:alias type="CGMES.Terminal1">_9f984b04-1736-43d2-9122-3a17fc8aea5f</iidm:alias>
                </iidm:switch>
                <iidm:switch id="_1ea8f512-451c-40d3-a312-7c4e71d9dbcb" name="NL_BREAKER_1" kind="BREAKER" retained="false" open="false" node1="11" node2="12">
                    <iidm:alias type="CGMES.Terminal1">_e19e01f7-eb9b-4ce5-a6fe-4bb4ef0ce6c3</iidm:alias>
                    <iidm:alias type="CGMES.Terminal2">_28797d21-df04-4be6-806b-3be26b040d6a</iidm:alias>
                </iidm:switch>
                <iidm:switch id="_0c2fa351-239d-463b-a826-0b8615bf6c3c" name="NL_BREAKER_4" kind="BREAKER" retained="false" open="false" node1="13" node2="14">
                    <iidm:alias type="CGMES.Terminal2">_3179d96c-7ecd-4f8a-b3f0-f24b62a16e87</iidm:alias>
                    <iidm:alias type="CGMES.Terminal1">_7fae7c9d-952f-4321-830d-aa667d21969d</iidm:alias>
                </iidm:switch>
                <iidm:internalConnection node1="4" node2="0"/>
                <iidm:internalConnection node1="5" node2="2"/>
                <iidm:internalConnection node1="6" node2="0"/>
                <iidm:internalConnection node1="7" node2="0"/>
                <iidm:internalConnection node1="8" node2="2"/>
                <iidm:internalConnection node1="11" node2="1"/>
                <iidm:internalConnection node1="12" node2="2"/>
                <iidm:internalConnection node1="13" node2="3"/>
                <iidm:internalConnection node1="14" node2="0"/>
                <iidm:internalConnection node1="15" node2="1"/>
                <iidm:internalConnection node1="16" node2="3"/>
                <iidm:bus v="16.01775" angle="-1.724105" nodes="0,3,4,6,7,13,14,16"/>
                <iidm:bus v="15.85663" angle="0.2074479" nodes="1,2,5,8,11,12,15"/>
            </iidm:nodeBreakerTopology>
            <iidm:generator id="_2844585c-0d35-488d-a449-685bcd57afbf" name="NL-G2" energySource="OTHER" minP="130.0" maxP="250.0" ratedS="250.0" voltageRegulatorOn="true" targetP="200.0" targetV="16.01775" targetQ="77.743" node="6" p="-140.0" q="-20.66022">
                <iidm:alias type="CGMES.Terminal1">_ae4b7cbe-349a-41c8-ace2-25ec26f14a64</iidm:alias>
                <iidm:property name="CGMES.normalPF" value="0.0"/>
                <iidm:property name="CGMES.GeneratingUnit" value="_ca80ee09-3bed-4884-bc28-6dc89d067289"/>
                <iidm:property name="CGMES.RegulatingControl" value="_1b3c88f9-c2ca-4250-bd37-ae0efa2fb022"/>
                <iidm:minMaxReactiveLimits minQ="0.0" maxQ="200.0"/>
            </iidm:generator>
            <iidm:generator id="_1dc9afba-23b5-41a0-8540-b479ed8baf4b" name="NL-G3" energySource="OTHER" minP="130.0" maxP="250.0" ratedS="250.0" voltageRegulatorOn="true" targetP="150.0" targetV="16.01775" targetQ="83.296" node="7" p="-150.0" q="-20.66022">
                <iidm:alias type="CGMES.Terminal1">_f04ecab5-1a12-4cc0-ba56-b157ebf11a42</iidm:alias>
                <iidm:property name="CGMES.normalPF" value="0.0"/>
                <iidm:property name="CGMES.GeneratingUnit" value="_b850063d-eae7-4675-bc98-4642d3076783"/>
                <iidm:property name="CGMES.RegulatingControl" value="_53e7a6c7-759b-4da2-898a-1c061d788670"/>
                <iidm:minMaxReactiveLimits minQ="0.0" maxQ="200.0"/>
            </iidm:generator>
            <iidm:generator id="_9c3b8f97-7972-477d-9dc8-87365cc0ad0e" name="NL-G1" energySource="OTHER" minP="300.0" maxP="1000.0" ratedS="1100.0" voltageRegulatorOn="true" targetP="600.4927" targetV="16.0335" targetQ="386.9225" node="8" p="-567.4967" q="-184.1005">
                <iidm:alias type="CGMES.Terminal1">_faab7959-f9bf-421b-bc3f-d364e0c1388b</iidm:alias>
                <iidm:property name="CGMES.normalPF" value="1.0"/>
                <iidm:property name="CGMES.GeneratingUnit" value="_049438a6-780a-44fe-a788-ebe385d98e25"/>
                <iidm:property name="CGMES.RegulatingControl" value="_04f338d3-3c0d-433f-a77b-e36dd256f0f0"/>
                <iidm:minMaxReactiveLimits minQ="0.0" maxQ="600.0"/>
            </iidm:generator>
        </iidm:voltageLevel>
        <iidm:voltageLevel id="_b7998ae6-0cc6-4dfe-8fec-0b549b07b6c3" name="400.0" nominalV="400.0" lowVoltageLimit="360.0" highVoltageLimit="440.0" topologyKind="NODE_BREAKER">
            <iidm:nodeBreakerTopology>
                <iidm:switch id="_bac0aa59-1318-4032-b192-15a8d49283ee" name="CIRCB-1230992192" kind="BREAKER" retained="false" open="false" node1="7" node2="8">
                    <iidm:alias type="CGMES.Terminal2">_f937c4ac-b9fc-44a2-82a0-99cb34c89974</iidm:alias>
                    <iidm:alias type="CGMES.Terminal1">_30aa2972-aafb-4c38-912d-a14867d47cec</iidm:alias>
                </iidm:switch>
                <iidm:switch id="_b1fc12ae-ba9f-42ee-9558-3d432cc58fbf" name="CIRCB-1230992183" kind="BREAKER" retained="false" open="false" node1="9" node2="10">
                    <iidm:alias type="CGMES.Terminal2">_7a7fd92b-1aaf-49de-b609-1d640e63d49f</iidm:alias>
                    <iidm:alias type="CGMES.Terminal1">_790df530-60c7-40bc-be5f-f90e9c65bab4</iidm:alias>
                </iidm:switch>
                <iidm:switch id="_b5a26150-429d-4acb-b45b-055e42c79055" name="CIRCB-1230992174" kind="BREAKER" retained="false" open="false" node1="11" node2="12">
                    <iidm:alias type="CGMES.Terminal2">_85ceec9c-21a9-4ef2-b7b0-c2bb9552e799</iidm:alias>
                    <iidm:alias type="CGMES.Terminal1">_41b735f7-da62-4bd3-ac98-fbdec24baeac</iidm:alias>
                </iidm:switch>
                <iidm:internalConnection node1="4" node2="1"/>
                <iidm:internalConnection node1="5" node2="1"/>
                <iidm:internalConnection node1="6" node2="1"/>
                <iidm:internalConnection node1="7" node2="0"/>
                <iidm:internalConnection node1="8" node2="1"/>
                <iidm:internalConnection node1="9" node2="2"/>
                <iidm:internalConnection node1="10" node2="1"/>
                <iidm:internalConnection node1="11" node2="3"/>
                <iidm:internalConnection node1="12" node2="1"/>
                <iidm:internalConnection node1="13" node2="1"/>
                <iidm:internalConnection node1="14" node2="0"/>
                <iidm:internalConnection node1="15" node2="2"/>
                <iidm:internalConnection node1="16" node2="3"/>
                <iidm:bus v="409.444" angle="-21.19489" nodes="0,1,2,3,4,5,6,7,8,9,10,11,12,13,14,15,16"/>
            </iidm:nodeBreakerTopology>
            <iidm:load id="_69add5b4-70bd-4360-8a93-286256c0d38b" name="NL-Load_1" loadType="UNDEFINED" p0="50.0" q0="280.0" node="4" p="90.0" q="280.0">
                <iidm:alias type="CGMES.Terminal1">_f461fd2d-1e41-4a3e-8213-7cc33c77a089</iidm:alias>
            </iidm:load>
            <iidm:load id="_25ab1b5b-6803-47e2-805a-ab7b2072e034" name="NL-Load_2" loadType="UNDEFINED" p0="10.0" q0="10.0" node="5" p="10.0" q="10.0">
                <iidm:alias type="CGMES.Terminal1">_6dad1a97-6874-4206-a5a5-837e495325f8</iidm:alias>
            </iidm:load>
            <iidm:shunt id="_fbfed7e3-3dec-4829-a286-029e73535685" name="NL-S1" sectionCount="1" voltageRegulatorOn="false" targetV="400.0" targetDeadband="0.5" node="6" p="0.0" q="-52.47276">
                <iidm:alias type="CGMES.Terminal1">_a015f692-3fc5-4ec3-8d1d-977c7b499e7c</iidm:alias>
                <iidm:property name="CGMES.RegulatingControl" value="_613dfeb3-0161-4cec-aaa9-ccddd885771b"/>
                <iidm:shuntLinearModel bPerSection="3.13E-4" gPerSection="0.0" maximumSectionCount="1"/>
                <iidm:regulatingTerminal id="_69add5b4-70bd-4360-8a93-286256c0d38b"/>
            </iidm:shunt>
        </iidm:voltageLevel>
        <iidm:voltageLevel id="_d77b61ef-61aa-4b22-95f6-b56ca080788d" name="220.0" nominalV="220.0" lowVoltageLimit="198.0" highVoltageLimit="242.0" topologyKind="NODE_BREAKER">
            <iidm:nodeBreakerTopology>
                <iidm:busbarSection id="_143aa0b1-2cd4-4e58-98d4-b0438bd5a39a" name="NL-Busbar_2" node="6">
                    <iidm:alias type="CGMES.Terminal1">_50f00b94-fe0f-48fd-887e-f0d4d59eee87</iidm:alias>
                </iidm:busbarSection>
                <iidm:busbarSection id="_12733133-1f34-44f3-a020-f5b33cede919" name="N1230822396" node="7">
                    <iidm:alias type="CGMES.Terminal1">_ecea10ff-e006-436b-a86a-beac4c2a30c1</iidm:alias>
                </iidm:busbarSection>
                <iidm:switch id="_5f5d40ae-d52d-4631-9285-b3ceefff784c" name="B1" kind="BREAKER" retained="true" open="false" node1="9" node2="10">
                    <iidm:alias type="CGMES.Terminal1">_8121d4c3-9cb2-47db-b40a-99678602bb2a</iidm:alias>
                    <iidm:alias type="CGMES.Terminal2">_5f40c3f7-9540-4e1b-aa97-6553d5524877</iidm:alias>
                </iidm:switch>
                <iidm:switch id="_21ec578c-689f-4130-80de-fd0fb5a30ed8" name="CIRCB-1230992249" kind="BREAKER" retained="false" open="false" node1="11" node2="12">
                    <iidm:alias type="CGMES.Terminal2">_3c377e5e-65cc-45f1-ba12-e20034df7cb3</iidm:alias>
                    <iidm:alias type="CGMES.Terminal1">_14f212ae-bcd8-46ae-9366-11dec9602a01</iidm:alias>
                </iidm:switch>
                <iidm:switch id="_88a19e5c-6885-4e6e-8d30-c5442444b309" name="CIRCB-1230992240" kind="BREAKER" retained="false" open="false" node1="13" node2="14">
                    <iidm:alias type="CGMES.Terminal2">_abc40269-5f9a-4b13-a5a5-8e3b3929eff5</iidm:alias>
                    <iidm:alias type="CGMES.Terminal1">_c9dbf281-e788-4084-b268-3b5a9473ad72</iidm:alias>
                </iidm:switch>
                <iidm:switch id="_4853e915-48e5-4527-a4db-cce11ab18f73" name="NL_BREAKER_3" kind="BREAKER" retained="false" open="false" node1="15" node2="16">
                    <iidm:alias type="CGMES.Terminal1">_74039a16-da9d-46dd-a4f1-dd65fbb09ec4</iidm:alias>
                    <iidm:alias type="CGMES.Terminal2">_e12338f8-6e9e-4d06-a29a-e12bdd7bd4d7</iidm:alias>
                </iidm:switch>
                <iidm:switch id="_3da8f227-5c16-47e1-a17f-4cd92269d301" name="NL_BREAKER_1" kind="BREAKER" retained="false" open="false" node1="17" node2="18">
                    <iidm:alias type="CGMES.Terminal2">_eedefa27-de13-4e6f-91a3-42aa86b539d6</iidm:alias>
                    <iidm:alias type="CGMES.Terminal1">_9fc1ca1a-bb62-4982-9358-fa9b4ac5564d</iidm:alias>
                </iidm:switch>
                <iidm:internalConnection node1="6" node2="3"/>
                <iidm:internalConnection node1="7" node2="4"/>
                <iidm:internalConnection node1="8" node2="3"/>
                <iidm:internalConnection node1="9" node2="0"/>
                <iidm:internalConnection node1="10" node2="3"/>
                <iidm:internalConnection node1="11" node2="5"/>
                <iidm:internalConnection node1="12" node2="0"/>
                <iidm:internalConnection node1="13" node2="2"/>
                <iidm:internalConnection node1="14" node2="0"/>
                <iidm:internalConnection node1="15" node2="0"/>
                <iidm:internalConnection node1="16" node2="4"/>
                <iidm:internalConnection node1="17" node2="3"/>
                <iidm:internalConnection node1="18" node2="1"/>
                <iidm:internalConnection node1="19" node2="1"/>
                <iidm:internalConnection node1="20" node2="3"/>
                <iidm:internalConnection node1="21" node2="4"/>
                <iidm:internalConnection node1="22" node2="2"/>
                <iidm:internalConnection node1="23" node2="5"/>
                <iidm:bus v="222.6806" angle="-3.469116" nodes="0,1,2,3,4,5,6,7,8,9,10,11,12,13,14,15,16,17,18,19,20,21,22,23"/>
            </iidm:nodeBreakerTopology>
            <iidm:load id="_b1e03a8f-6a11-4454-af58-4a4a680e857f" name="NL-Load_3" loadType="UNDEFINED" p0="486.0" q0="230.0" node="8" p="487.1842" q="230.8406">
                <iidm:alias type="CGMES.Terminal1">_fab54e9c-b12e-4e47-a9f2-fec4ef96c0c0</iidm:alias>
            </iidm:load>
        </iidm:voltageLevel>
        <iidm:twoWindingsTransformer id="_80016742-31b3-432a-b00a-300667a1e572" name="NL_TR2_3" r="3.3468961518595046E-4" x="0.027560466411415293" g="0.003547489523809523" b="-0.027710349931972786" ratedU1="220.0" ratedU2="15.75" node1="19" voltageLevelId1="_d77b61ef-61aa-4b22-95f6-b56ca080788d" node2="15" voltageLevelId2="_8d8a82ba-b5b0-4e94-861a-192af055f2b8" p1="-559.2375" q1="-138.2136" p2="560.5737" q2="184.1005">
            <iidm:alias type="CGMES.TransformerEnd1">_f3600241-63dc-485b-aefb-4ec24028f8b3</iidm:alias>
            <iidm:alias type="CGMES.Terminal2">_4f1c405f-07c9-4fb0-b64e-551896a29aa8</iidm:alias>
            <iidm:alias type="CGMES.Terminal1">_bd61b1f9-474d-424e-9709-42f75337c477</iidm:alias>
            <iidm:alias type="CGMES.RatioTapChanger1">_44b4277a-0f4b-43a8-ad93-6f7d6ef02061</iidm:alias>
            <iidm:alias type="CGMES.TransformerEnd2">_4df90339-ae02-4da1-8e1e-69ab068df065</iidm:alias>
            <iidm:ratioTapChanger lowTapPosition="-15" tapPosition="5" loadTapChangingCapabilities="true" regulating="false">
                <iidm:step r="0.065302" x="4.916391" g="0.0" b="0.0" rho="1.0869565217391304"/>
                <iidm:step r="0.065302" x="4.954807" g="0.0" b="0.0" rho="1.081081081081081"/>
                <iidm:step r="0.065302" x="4.993223" g="0.0" b="0.0" rho="1.075268817204301"/>
                <iidm:step r="0.065302" x="5.03164" g="0.0" b="0.0" rho="1.0638297872340425"/>
                <iidm:step r="0.065302" x="5.03164" g="0.0" b="0.0" rho="1.0582010582010584"/>
                <iidm:step r="0.065302" x="5.070055" g="0.0" b="0.0" rho="1.0526315789473684"/>
                <iidm:step r="0.065302" x="5.070055" g="0.0" b="0.0" rho="1.0471204188481675"/>
                <iidm:step r="0.065302" x="5.108471" g="0.0" b="0.0" rho="1.0416666666666667"/>
                <iidm:step r="0.065302" x="5.146887" g="0.0" b="0.0" rho="1.0362694300518136"/>
                <iidm:step r="0.065302" x="5.185303" g="0.0" b="0.0" rho="1.0309278350515465"/>
                <iidm:step r="0.065302" x="5.185303" g="0.0" b="0.0" rho="1.0256410256410258"/>
                <iidm:step r="0.065302" x="5.223718" g="0.0" b="0.0" rho="1.0204081632653061"/>
                <iidm:step r="0.065302" x="5.262134" g="0.0" b="0.0" rho="1.015228426395939"/>
                <iidm:step r="0.065302" x="5.30055" g="0.0" b="0.0" rho="1.0101010101010102"/>
                <iidm:step r="0.065302" x="5.338965" g="0.0" b="0.0" rho="1.0050251256281406"/>
                <iidm:step r="0.065302" x="5.377381" g="0.0" b="0.0" rho="1.0"/>
                <iidm:step r="0.065302" x="5.415796" g="0.0" b="0.0" rho="0.9950248756218907"/>
                <iidm:step r="0.065302" x="5.454212" g="0.0" b="0.0" rho="0.9900990099009901"/>
                <iidm:step r="0.065302" x="5.454212" g="0.0" b="0.0" rho="0.984930562395351"/>
                <iidm:step r="0.065302" x="5.492627" g="0.0" b="0.0" rho="0.9803921568627451"/>
                <iidm:step r="0.065302" x="5.531043" g="0.0" b="0.0" rho="0.9756097560975611"/>
                <iidm:step r="0.065302" x="5.569458" g="0.0" b="0.0" rho="0.9699321047526674"/>
                <iidm:step r="0.065302" x="5.607873" g="0.0" b="0.0" rho="0.9643201542912248"/>
                <iidm:step r="0.065302" x="5.646288" g="0.0" b="0.0" rho="0.9587727708533078"/>
                <iidm:step r="0.065302" x="5.646288" g="0.0" b="0.0" rho="0.9523809523809523"/>
                <iidm:step r="0.065302" x="5.684704" g="0.0" b="0.0" rho="0.9478672985781991"/>
                <iidm:step r="0.065302" x="5.684704" g="0.0" b="0.0" rho="0.9433962264150942"/>
                <iidm:step r="0.065302" x="5.723119" g="0.0" b="0.0" rho="0.9389671361502347"/>
                <iidm:step r="0.065302" x="5.723119" g="0.0" b="0.0" rho="0.9328358208955223"/>
                <iidm:step r="0.065302" x="5.761534" g="0.0" b="0.0" rho="0.9259259259259258"/>
                <iidm:step r="0.065302" x="5.799949" g="0.0" b="0.0" rho="0.9216589861751152"/>
            </iidm:ratioTapChanger>
            <iidm:currentLimits1 permanentLimit="3306.644"/>
            <iidm:currentLimits2 permanentLimit="46188.04"/>
        </iidm:twoWindingsTransformer>
        <iidm:twoWindingsTransformer id="_2184f365-8cd5-4b5d-8a28-9d68603bb6a4" name="NL_TR2_2" r="3.543757321797521E-4" x="0.0275602203990186" g="0.003547489523809523" b="-0.027710349931972786" ratedU1="220.0" ratedU2="15.75" node1="21" voltageLevelId1="_d77b61ef-61aa-4b22-95f6-b56ca080788d" node2="16" voltageLevelId2="_8d8a82ba-b5b0-4e94-861a-192af055f2b8" p1="-287.3137" q1="-25.16025" p2="288.3278" q2="41.32045">
            <iidm:alias type="CGMES.PhaseTapChanger1">_ee649b97-d2ec-47e1-976f-0f4d9f50fa11</iidm:alias>
            <iidm:alias type="CGMES.Terminal1">_1128e664-0653-448a-9068-e37f1a097c05</iidm:alias>
            <iidm:alias type="CGMES.TransformerEnd2">_41ca9e70-1cb4-4971-b8e6-a97a15580b89</iidm:alias>
            <iidm:alias type="CGMES.Terminal2">_da232169-1c36-495a-8af6-a0d7d2b39f52</iidm:alias>
            <iidm:alias type="CGMES.TransformerEnd1">_0dbed103-fc51-4df4-a6fa-0dee4c57f3a3</iidm:alias>
            <iidm:phaseTapChanger lowTapPosition="0" tapPosition="17" regulationMode="FIXED_TAP">
                <iidm:step r="0.0" x="0.0" g="0.0" b="0.0" rho="1.0869392724854583" alpha="0.08564533"/>
                <iidm:step r="0.0" x="0.0" g="0.0" b="0.0" rho="1.0810654202414798" alpha="0.07985887"/>
                <iidm:step r="0.0" x="0.0" g="0.0" b="0.0" rho="1.075254711712384" alpha="0.0741346"/>
                <iidm:step r="0.0" x="0.0" g="0.0" b="0.0" rho="1.069504990310285" alpha="0.06847034"/>
                <iidm:step r="0.0" x="0.0" g="0.0" b="0.0" rho="1.0638175646492571" alpha="0.06286751"/>
                <iidm:step r="0.0" x="0.0" g="0.0" b="0.0" rho="1.0581903083312594" alpha="0.05732394"/>
                <iidm:step r="0.0" x="0.0" g="0.0" b="0.0" rho="1.052622160749088" alpha="0.05183871"/>
                <iidm:step r="0.0" x="0.0" g="0.0" b="0.0" rho="1.0471123050983688" alpha="0.04641083"/>
                <iidm:step r="0.0" x="0.0" g="0.0" b="0.0" rho="1.0416598307740272" alpha="0.04103953"/>
                <iidm:step r="0.0" x="0.0" g="0.0" b="0.0" rho="1.0362627721977329" alpha="0.0357228"/>
                <iidm:step r="0.0" x="0.0" g="0.0" b="0.0" rho="1.0309224147378195" alpha="0.03046193"/>
                <iidm:step r="0.0" x="0.0" g="0.0" b="0.0" rho="1.0256367127071568" alpha="0.02525494"/>
                <iidm:step r="0.0" x="0.0" g="0.0" b="0.0" rho="1.0204050395764095" alpha="0.02010112"/>
                <iidm:step r="0.0" x="0.0" g="0.0" b="0.0" rho="1.015226365022609" alpha="0.01499961"/>
                <iidm:step r="0.0" x="0.0" g="0.0" b="0.0" rho="1.0100989694970313" alpha="0.009948592"/>
                <iidm:step r="0.0" x="0.0" g="0.0" b="0.0" rho="1.0050241155536528" alpha="0.004949279"/>
                <iidm:step r="0.0" x="0.0" g="0.0" b="0.0" rho="1.0" alpha="-0.0"/>
                <iidm:step r="0.0" x="0.0" g="0.0" b="0.0" rho="0.9950258656973788" alpha="-0.004900108"/>
                <iidm:step r="0.0" x="0.0" g="0.0" b="0.0" rho="0.9901009704969713" alpha="-0.0097516"/>
                <iidm:step r="0.0" x="0.0" g="0.0" b="0.0" rho="0.9852236162041698" alpha="-0.01455634"/>
                <iidm:step r="0.0" x="0.0" g="0.0" b="0.0" rho="0.9803950403775697" alpha="-0.01931307"/>
                <iidm:step r="0.0" x="0.0" g="0.0" b="0.0" rho="0.9756135633700034" alpha="-0.02402342"/>
                <iidm:step r="0.0" x="0.0" g="0.0" b="0.0" rho="0.9708775568060459" alpha="-0.02868893"/>
                <iidm:step r="0.0" x="0.0" g="0.0" b="0.0" rho="0.9661882424552775" alpha="-0.03330838"/>
                <iidm:step r="0.0" x="0.0" g="0.0" b="0.0" rho="0.9615430843417516" alpha="-0.03788355"/>
                <iidm:step r="0.0" x="0.0" g="0.0" b="0.0" rho="0.9569432934543165" alpha="-0.04241494"/>
                <iidm:step r="0.0" x="0.0" g="0.0" b="0.0" rho="0.9523863945889214" alpha="-0.04690404"/>
                <iidm:step r="0.0" x="0.0" g="0.0" b="0.0" rho="0.9478735877868383" alpha="-0.05134965"/>
                <iidm:step r="0.0" x="0.0" g="0.0" b="0.0" rho="0.9434033464403504" alpha="-0.05575343"/>
                <iidm:step r="0.0" x="0.0" g="0.0" b="0.0" rho="0.9389733078057789" alpha="-0.06011671"/>
                <iidm:step r="0.0" x="0.0" g="0.0" b="0.0" rho="0.9345864268144061" alpha="-0.06443839"/>
                <iidm:step r="0.0" x="0.0" g="0.0" b="0.0" rho="0.9302403461982472" alpha="-0.06871978"/>
                <iidm:step r="0.0" x="0.0" g="0.0" b="0.0" rho="0.9259336420396097" alpha="-0.07296245"/>
                <iidm:step r="0.0" x="0.0" g="0.0" b="0.0" rho="0.9216666313361125" alpha="-0.07716522"/>
            </iidm:phaseTapChanger>
            <iidm:currentLimits1 permanentLimit="3306.644"/>
            <iidm:currentLimits2 permanentLimit="46188.04"/>
        </iidm:twoWindingsTransformer>
        <iidm:twoWindingsTransformer id="_e8a7eaec-51d6-4571-b3d9-c36d52073c33" name="NL-TR2_1" r="0.4083750000000001" x="8.4601506" g="1.8595041322314046E-6" b="-1.4692561983471074E-5" ratedU1="400.0" ratedU2="220.0" node1="13" voltageLevelId1="_b7998ae6-0cc6-4dfe-8fec-0b549b07b6c3" node2="20" voltageLevelId2="_d77b61ef-61aa-4b22-95f6-b56ca080788d" p1="-172.9987" q1="77.56304" p2="173.3811" q2="-70.77673">
            <iidm:alias type="CGMES.Terminal1">_e3e0c496-5837-4f0f-a596-cc421940f73f</iidm:alias>
            <iidm:alias type="CGMES.Terminal2">_baa7aef1-afcd-4981-97c0-ccec7b5ad4e0</iidm:alias>
            <iidm:alias type="CGMES.PhaseTapChanger1">_341327c4-9224-40bf-bc33-7a3bb0bae680</iidm:alias>
            <iidm:alias type="CGMES.TransformerEnd2">_0dec3883-a2b6-4353-83cc-d4dd5df513a6</iidm:alias>
            <iidm:alias type="CGMES.TransformerEnd1">_c614f321-2c88-4fa3-b98a-8ec3cde73db4</iidm:alias>
            <iidm:phaseTapChanger lowTapPosition="-20" tapPosition="8" regulationMode="FIXED_TAP">
                <iidm:step r="0.0" x="6.249982122067658" g="0.0" b="0.0" rho="1.0" alpha="-40.0"/>
                <iidm:step r="0.0" x="5.663165336578756" g="0.0" b="0.0" rho="1.0" alpha="-38.0"/>
                <iidm:step r="0.0" x="5.101996236756837" g="0.0" b="0.0" rho="1.0" alpha="-36.0"/>
                <iidm:step r="0.0" x="4.5671585207085705" g="0.0" b="0.0" rho="1.0" alpha="-34.0"/>
                <iidm:step r="0.0" x="4.0593038058055155" g="0.0" b="0.0" rho="1.0" alpha="-32.0"/>
                <iidm:step r="0.0" x="3.579050834788764" g="0.0" b="0.0" rho="1.0" alpha="-30.0"/>
                <iidm:step r="0.0" x="3.1269847219261995" g="0.0" b="0.0" rho="1.0" alpha="-28.0"/>
                <iidm:step r="0.0" x="2.703656240140899" g="0.0" b="0.0" rho="1.0" alpha="-26.0"/>
                <iidm:step r="0.0" x="2.3095811499791554" g="0.0" b="0.0" rho="1.0" alpha="-24.0"/>
                <iidm:step r="0.0" x="1.9452395712357367" g="0.0" b="0.0" rho="1.0" alpha="-22.0"/>
                <iidm:step r="0.0" x="1.6110753980018124" g="0.0" b="0.0" rho="1.0" alpha="-20.0"/>
                <iidm:step r="0.0" x="1.307495757848421" g="0.0" b="0.0" rho="1.0" alpha="-18.0"/>
                <iidm:step r="0.0" x="1.0348705158042308" g="0.0" b="0.0" rho="1.0" alpha="-16.0"/>
                <iidm:step r="0.0" x="0.7935318237319766" g="0.0" b="0.0" rho="1.0" alpha="-14.0"/>
                <iidm:step r="0.0" x="0.5837737156525631" g="0.0" b="0.0" rho="1.0" alpha="-12.0"/>
                <iidm:step r="0.0" x="0.4058517495099393" g="0.0" b="0.0" rho="1.0" alpha="-10.0"/>
                <iidm:step r="0.0" x="0.259982695813068" g="0.0" b="0.0" rho="1.0" alpha="-8.0"/>
                <iidm:step r="0.0" x="0.14634427353448118" g="0.0" b="0.0" rho="1.0" alpha="-6.0"/>
                <iidm:step r="0.0" x="0.0650749335870492" g="0.0" b="0.0" rho="1.0" alpha="-4.0"/>
                <iidm:step r="0.0" x="0.016273690142932947" g="0.0" b="0.0" rho="1.0" alpha="-2.0"/>
                <iidm:step r="0.0" x="0.0" g="0.0" b="0.0" rho="1.0" alpha="0.0"/>
                <iidm:step r="0.0" x="0.016273690142932947" g="0.0" b="0.0" rho="1.0" alpha="2.0"/>
                <iidm:step r="0.0" x="0.0650749335870492" g="0.0" b="0.0" rho="1.0" alpha="4.0"/>
                <iidm:step r="0.0" x="0.14634427353448118" g="0.0" b="0.0" rho="1.0" alpha="6.0"/>
                <iidm:step r="0.0" x="0.259982695813068" g="0.0" b="0.0" rho="1.0" alpha="8.0"/>
                <iidm:step r="0.0" x="0.4058517495099393" g="0.0" b="0.0" rho="1.0" alpha="10.0"/>
                <iidm:step r="0.0" x="0.5837737156525631" g="0.0" b="0.0" rho="1.0" alpha="12.0"/>
                <iidm:step r="0.0" x="0.7935318237319766" g="0.0" b="0.0" rho="1.0" alpha="14.0"/>
                <iidm:step r="0.0" x="1.0348705158042308" g="0.0" b="0.0" rho="1.0" alpha="16.0"/>
                <iidm:step r="0.0" x="1.307495757848421" g="0.0" b="0.0" rho="1.0" alpha="18.0"/>
                <iidm:step r="0.0" x="1.6110753980018124" g="0.0" b="0.0" rho="1.0" alpha="20.0"/>
                <iidm:step r="0.0" x="1.9452395712357367" g="0.0" b="0.0" rho="1.0" alpha="22.0"/>
                <iidm:step r="0.0" x="2.3095811499791554" g="0.0" b="0.0" rho="1.0" alpha="24.0"/>
                <iidm:step r="0.0" x="2.703656240140899" g="0.0" b="0.0" rho="1.0" alpha="26.0"/>
                <iidm:step r="0.0" x="3.1269847219261995" g="0.0" b="0.0" rho="1.0" alpha="28.0"/>
                <iidm:step r="0.0" x="3.579050834788764" g="0.0" b="0.0" rho="1.0" alpha="30.0"/>
                <iidm:step r="0.0" x="4.0593038058055155" g="0.0" b="0.0" rho="1.0" alpha="32.0"/>
                <iidm:step r="0.0" x="4.5671585207085705" g="0.0" b="0.0" rho="1.0" alpha="34.0"/>
                <iidm:step r="0.0" x="5.101996236756837" g="0.0" b="0.0" rho="1.0" alpha="36.0"/>
                <iidm:step r="0.0" x="5.663165336578756" g="0.0" b="0.0" rho="1.0" alpha="38.0"/>
                <iidm:step r="0.0" x="6.249982122067658" g="0.0" b="0.0" rho="1.0" alpha="40.0"/>
            </iidm:phaseTapChanger>
            <iidm:currentLimits1 permanentLimit="461.8804"/>
            <iidm:currentLimits2 permanentLimit="839.7826"/>
        </iidm:twoWindingsTransformer>
    </iidm:substation>
    <iidm:substation id="_87f7002b-056f-4a6a-a872-1744eea757e3" name="Anvers" country="BE" geographicalTags="ELIA-Anvers">
        <iidm:property name="CGMES.regionName" value="BE"/>
        <iidm:property name="CGMES.subRegionId" value="_02047c0b-b5a4-4e0d-bae6-fc5437a55e74"/>
        <iidm:property name="CGMES.regionId" value="_7bf89875-1476-4d1a-a56d-a2965cce3575"/>
        <iidm:voltageLevel id="_69ef0dbd-da79-4eef-a02f-690cb8a28361" name="225.0" nominalV="225.0" lowVoltageLimit="202.5" highVoltageLimit="247.5" topologyKind="NODE_BREAKER">
            <iidm:nodeBreakerTopology>
                <iidm:busbarSection id="_d6986ea6-fadc-4113-806a-a8f95f62c216" name="N1230992414" node="6">
                    <iidm:alias type="CGMES.Terminal1">_ad794c0e-b9ec-420b-ada1-97680e3dde05</iidm:alias>
                </iidm:busbarSection>
                <iidm:busbarSection id="_ef45b632-3028-4afe-bc4c-a4fa323d83fe" name="BE-Busbar_2" node="7">
                    <iidm:alias type="CGMES.Terminal1">_800ada75-8c8c-4568-aec5-20f799e45f3c</iidm:alias>
                </iidm:busbarSection>
                <iidm:busbarSection id="_8da0ff82-2f23-4231-ac9b-28b9c9141432" name="N1230992411" node="8">
                    <iidm:alias type="CGMES.Terminal1">_3c6d83a3-b5f9-41a2-a3d9-cf15d903ed0a</iidm:alias>
                </iidm:busbarSection>
                <iidm:switch id="_0a84038e-1952-4d9d-9909-3b49c364a1ac" name="CIRCB-1230992408" kind="BREAKER" retained="false" open="false" node1="10" node2="11">
                    <iidm:alias type="CGMES.Terminal2">_b741ce25-3f99-4aa8-9b03-d9de0ba6e342</iidm:alias>
                    <iidm:alias type="CGMES.Terminal1">_3fa4866b-1714-4be9-afab-3909ae092016</iidm:alias>
                </iidm:switch>
                <iidm:switch id="_484536e9-762a-49a3-9970-d60b9fae03fe" name="CIRCB-1230991544" kind="BREAKER" retained="false" open="false" node1="12" node2="13">
                    <iidm:alias type="CGMES.Terminal1">_310c303a-b0ed-4e42-9854-628f34c53d2b</iidm:alias>
                    <iidm:alias type="CGMES.Terminal2">_678a3049-afc0-432f-8f53-b30aa71907b2</iidm:alias>
                </iidm:switch>
                <iidm:switch id="_fd136c65-d001-41a1-adc7-c5430b5c5e72" name="CIRCB-1230992399" kind="BREAKER" retained="false" open="false" node1="14" node2="15">
                    <iidm:alias type="CGMES.Terminal2">_b6e23b90-9c48-4285-ac02-5b68d0c572a6</iidm:alias>
                    <iidm:alias type="CGMES.Terminal1">_e57dd4ed-5ea0-4374-9b36-40a294a8e2be</iidm:alias>
                </iidm:switch>
                <iidm:switch id="_925a3a38-cd26-4f89-8891-c5bc8494e1ae" name="CIRCB-1230991526" kind="BREAKER" retained="false" open="false" node1="16" node2="17">
                    <iidm:alias type="CGMES.Terminal1">_381fc1a6-63f7-4728-bb84-d4d7fe4f8794</iidm:alias>
                    <iidm:alias type="CGMES.Terminal2">_e1e6f751-259f-4182-b4e1-12eba54a54ce</iidm:alias>
                </iidm:switch>
                <iidm:internalConnection node1="6" node2="0"/>
                <iidm:internalConnection node1="7" node2="1"/>
                <iidm:internalConnection node1="8" node2="5"/>
                <iidm:internalConnection node1="9" node2="1"/>
                <iidm:internalConnection node1="10" node2="0"/>
                <iidm:internalConnection node1="11" node2="1"/>
                <iidm:internalConnection node1="12" node2="1"/>
                <iidm:internalConnection node1="13" node2="2"/>
                <iidm:internalConnection node1="14" node2="5"/>
                <iidm:internalConnection node1="15" node2="1"/>
                <iidm:internalConnection node1="16" node2="4"/>
                <iidm:internalConnection node1="17" node2="3"/>
                <iidm:internalConnection node1="18" node2="0"/>
                <iidm:internalConnection node1="19" node2="5"/>
                <iidm:internalConnection node1="20" node2="1"/>
                <iidm:internalConnection node1="21" node2="4"/>
                <iidm:internalConnection node1="22" node2="2"/>
                <iidm:internalConnection node1="23" node2="3"/>
                <iidm:bus v="222.6902" angle="-16.11601" nodes="0,1,2,5,6,7,8,9,10,11,12,13,14,15,18,19,20,22"/>
                <iidm:bus v="225.8443" angle="-19.64551" nodes="3,4,16,17,21,23"/>
            </iidm:nodeBreakerTopology>
            <iidm:load id="_b1480a00-b427-4001-a26c-51954d2bb7e9" name="L-1230804819" loadType="UNDEFINED" p0="1.0" q0="0.0" node="9" p="1.0" q="1.0E-12">
                <iidm:alias type="CGMES.Terminal1">_b9376bea-c75d-49f3-94ca-6a71fa0086a5</iidm:alias>
            </iidm:load>
        </iidm:voltageLevel>
    </iidm:substation>
    <iidm:substation id="_37e14a0f-5e34-4647-a062-8bfd9305fa9d" name="PP_Brussels" country="BE" geographicalTags="ELIA-Brussels">
        <iidm:property name="CGMES.regionName" value="BE"/>
        <iidm:property name="CGMES.subRegionId" value="_61378219-a236-4070-bbec-4e30a6ac848d"/>
        <iidm:property name="CGMES.regionId" value="_7bf89875-1476-4d1a-a56d-a2965cce3575"/>
        <iidm:voltageLevel id="_8bbd7e74-ae20-4dce-8780-c20f8e18c2e0" name="110.0" nominalV="110.0" lowVoltageLimit="99.0" highVoltageLimit="121.0" topologyKind="NODE_BREAKER">
            <iidm:nodeBreakerTopology>
                <iidm:busbarSection id="_364c9ca2-0d1d-4363-8f46-e586f8f66a8c" name="BE-Busbar_6" node="4">
                    <iidm:alias type="CGMES.Terminal1">_a1b46f53-86f1-497e-bf57-c3b6268bcd6c</iidm:alias>
                </iidm:busbarSection>
                <iidm:switch id="_2922c1dd-4113-466e-8cad-002572f3f557" name="BE_Breaker_3" kind="BREAKER" retained="false" open="false" node1="7" node2="8">
                    <iidm:alias type="CGMES.Terminal2">_b8bca219-a924-434f-8163-50aae6d486a7</iidm:alias>
                    <iidm:alias type="CGMES.Terminal1">_4bbaf84d-2437-44e1-a56c-e79723370e77</iidm:alias>
                </iidm:switch>
                <iidm:switch id="_6e86cd52-4594-435e-92ce-6dc673288ab4" name="BE_Breaker_5" kind="BREAKER" retained="false" open="false" node1="9" node2="10">
                    <iidm:alias type="CGMES.Terminal2">_61562178-c201-43c7-b56d-a300ab07c723</iidm:alias>
                    <iidm:alias type="CGMES.Terminal1">_5245aa5c-9600-4632-95db-e981a19ed857</iidm:alias>
                </iidm:switch>
                <iidm:switch id="_38dfcc80-600f-44e2-8f71-fb595b4f00ac" name="BE_Breaker_1" kind="BREAKER" retained="false" open="false" node1="11" node2="12">
                    <iidm:alias type="CGMES.Terminal2">_95f1d705-35fa-4102-ba5b-43dfe7a0e0cc</iidm:alias>
                    <iidm:alias type="CGMES.Terminal1">_9f5dbaf3-e384-4e86-9d49-f43c30b4e354</iidm:alias>
                </iidm:switch>
                <iidm:internalConnection node1="4" node2="2"/>
                <iidm:internalConnection node1="5" node2="2"/>
                <iidm:internalConnection node1="6" node2="2"/>
                <iidm:internalConnection node1="7" node2="2"/>
                <iidm:internalConnection node1="8" node2="0"/>
                <iidm:internalConnection node1="9" node2="3"/>
                <iidm:internalConnection node1="10" node2="2"/>
                <iidm:internalConnection node1="11" node2="2"/>
                <iidm:internalConnection node1="12" node2="1"/>
                <iidm:internalConnection node1="13" node2="1"/>
                <iidm:internalConnection node1="14" node2="0"/>
                <iidm:internalConnection node1="15" node2="3"/>
                <iidm:bus v="115.5039" angle="-20.08845" nodes="0,1,2,3,4,5,6,7,8,9,10,11,12,13,14,15"/>
            </iidm:nodeBreakerTopology>
            <iidm:load id="_cb459405-cc14-4215-a45c-416789205904" name="BE-Load_1" loadType="UNDEFINED" p0="200.0" q0="90.0" node="5" p="200.0" q="90.0">
                <iidm:alias type="CGMES.Terminal1">_cbdf1842-74ed-4fce-a5d4-0296c82cbc92</iidm:alias>
            </iidm:load>
            <iidm:shunt id="_d771118f-36e9-4115-a128-cc3d9ce3e3da" name="BE_S1" sectionCount="1" voltageRegulatorOn="false" targetV="110.0" targetDeadband="0.5" node="6" p="0.0" q="-330.75">
                <iidm:alias type="CGMES.Terminal1">_d5e2e58e-ccf6-47d9-b3bb-3088eb7a9b6c</iidm:alias>
                <iidm:property name="CGMES.RegulatingControl" value="_4d50f86d-0d12-4ca3-9430-56bb05f9eee6"/>
                <iidm:shuntLinearModel bPerSection="0.02479339" gPerSection="0.0" maximumSectionCount="1"/>
            </iidm:shunt>
        </iidm:voltageLevel>
        <iidm:voltageLevel id="_469df5f7-058f-4451-a998-57a48e8a56fe" name="380.0" nominalV="380.0" lowVoltageLimit="342.0" highVoltageLimit="418.0" topologyKind="NODE_BREAKER">
            <iidm:nodeBreakerTopology>
                <iidm:busbarSection id="_64901aec-5a8a-4bcb-8ca7-a3ddbfcd0e6c" name="BE-Busbar_1" node="5">
                    <iidm:alias type="CGMES.Terminal1">_fa9e0f4d-8a2f-45e1-9e36-3611600d1c94</iidm:alias>
                </iidm:busbarSection>
                <iidm:switch id="_6b564930-b5e2-49d3-9d06-e1de28d6fd65" name="BE_Breaker_2" kind="BREAKER" retained="false" open="false" node1="7" node2="8">
                    <iidm:alias type="CGMES.Terminal2">_907dbcfe-2037-4f84-97f1-6e59f782168e</iidm:alias>
                    <iidm:alias type="CGMES.Terminal1">_345d8528-1a7e-4245-92d6-15db7a7e3c86</iidm:alias>
                </iidm:switch>
                <iidm:switch id="_0e8cd279-ad5d-485a-b3a9-093ae8714b72" name="CIRCB-1230991736" kind="BREAKER" retained="false" open="false" node1="9" node2="10">
                    <iidm:alias type="CGMES.Terminal2">_36fedfd8-280b-4ee4-b58a-cd2063e5d706</iidm:alias>
                    <iidm:alias type="CGMES.Terminal1">_0cca0f16-c476-4a99-b289-d660ff57b891</iidm:alias>
                </iidm:switch>
                <iidm:switch id="_96c2b5c8-8e28-4b08-96d2-ca9b09cdbd83" name="BE_Breaker_12" kind="BREAKER" retained="false" open="false" node1="11" node2="12">
                    <iidm:alias type="CGMES.Terminal2">_a45d705f-46f6-4bde-8790-11a762da8c01</iidm:alias>
                    <iidm:alias type="CGMES.Terminal1">_5c206db8-ef8c-4e53-b2b9-38b52b194c5a</iidm:alias>
                </iidm:switch>
                <iidm:switch id="_14d55344-c118-4f54-a430-72f16d12bf7b" name="CIRCB-1230991718" kind="BREAKER" retained="false" open="false" node1="13" node2="14">
                    <iidm:alias type="CGMES.Terminal1">_042688a6-140f-473c-98f9-94a3cfdc00d3</iidm:alias>
                    <iidm:alias type="CGMES.Terminal2">_6811721b-252c-45fd-8474-6db1e7d5739e</iidm:alias>
                </iidm:switch>
                <iidm:internalConnection node1="5" node2="2"/>
                <iidm:internalConnection node1="6" node2="2"/>
                <iidm:internalConnection node1="7" node2="4"/>
                <iidm:internalConnection node1="8" node2="2"/>
                <iidm:internalConnection node1="9" node2="2"/>
                <iidm:internalConnection node1="10" node2="0"/>
                <iidm:internalConnection node1="11" node2="1"/>
                <iidm:internalConnection node1="12" node2="2"/>
                <iidm:internalConnection node1="13" node2="2"/>
                <iidm:internalConnection node1="14" node2="3"/>
                <iidm:internalConnection node1="15" node2="1"/>
                <iidm:internalConnection node1="16" node2="4"/>
                <iidm:internalConnection node1="17" node2="2"/>
                <iidm:internalConnection node1="18" node2="0"/>
                <iidm:internalConnection node1="19" node2="3"/>
                <iidm:bus v="413.4605" angle="-21.35799" nodes="0,1,2,3,4,5,6,7,8,9,10,11,12,13,14,15,16,17,18,19"/>
            </iidm:nodeBreakerTopology>
            <iidm:shunt id="_002b0a40-3957-46db-b84a-30420083558f" name="BE_S2" sectionCount="1" voltageRegulatorOn="false" targetV="380.0" targetDeadband="0.5" node="6" p="1.863348" q="-59.14565">
                <iidm:alias type="CGMES.Terminal1">_22af3121-1a66-4546-bd80-4371f417c644</iidm:alias>
                <iidm:property name="CGMES.RegulatingControl" value="_bee06911-8d5c-44c4-b2d2-5c22a461b5a0"/>
                <iidm:shuntNonLinearModel>
                    <iidm:section b="3.459834E-4" g="2.18E-6"/>
                    <iidm:section b="5.189751E-4" g="4.36E-6"/>
                    <iidm:section b="6.57964E-4" g="6.54E-6"/>
                    <iidm:section b="7.269390700000001E-4" g="8.72E-6"/>
                    <iidm:section b="7.6191137E-4" g="1.0899999999999999E-5"/>
                </iidm:shuntNonLinearModel>
                <iidm:regulatingTerminal id="_dad02278-bd25-476f-8f58-dbe44be72586 + _ed0c5d75-4a54-43c8-b782-b20d7431630b" side="TWO"/>
            </iidm:shunt>
        </iidm:voltageLevel>
        <iidm:voltageLevel id="_929ba893-c9dc-44d7-b1fd-30834bd3ab85" name="21.0" nominalV="21.0" lowVoltageLimit="18.9" highVoltageLimit="23.1" topologyKind="NODE_BREAKER">
            <iidm:nodeBreakerTopology>
                <iidm:switch id="_969470b9-e74c-40d2-b3f7-bcfd88400fd1" name="BE_Breaker_10" kind="BREAKER" retained="false" open="false" node1="3" node2="4">
                    <iidm:alias type="CGMES.Terminal2">_b3bf6cbd-abe8-42b6-95f4-20682475b484</iidm:alias>
                    <iidm:alias type="CGMES.Terminal1">_f392d0d3-47cb-4ec1-925f-b3762d4a787c</iidm:alias>
                </iidm:switch>
                <iidm:internalConnection node1="2" node2="1"/>
                <iidm:internalConnection node1="3" node2="1"/>
                <iidm:internalConnection node1="4" node2="0"/>
                <iidm:internalConnection node1="5" node2="0"/>
                <iidm:bus v="21.987" angle="-20.03488" nodes="0,1,2,3,4,5"/>
            </iidm:nodeBreakerTopology>
            <iidm:generator id="_550ebe0d-f2b2-48c1-991f-cebea43a21aa" name="BE-G2" energySource="OTHER" minP="50.0" maxP="200.0" ratedS="300.0" voltageRegulatorOn="true" targetP="118.0" targetV="21.987" targetQ="18.7203" node="2" p="-118.0" q="-86.81476">
                <iidm:alias type="CGMES.Terminal1">_4bb5407b-b4a5-416c-80ad-1a778ada2b9b</iidm:alias>
                <iidm:property name="CGMES.normalPF" value="0.0"/>
                <iidm:property name="CGMES.GeneratingUnit" value="_5b7a4d43-09ec-4033-882d-64a76d557631"/>
                <iidm:property name="CGMES.RegulatingControl" value="_84bf5be8-eb59-4555-b131-fce4d2d7775d"/>
                <iidm:minMaxReactiveLimits minQ="-200.0" maxQ="200.0"/>
            </iidm:generator>
        </iidm:voltageLevel>
        <iidm:voltageLevel id="_b10b171b-3bc5-4849-bb1f-61ed9ea1ec7c" name="225.0" nominalV="225.0" lowVoltageLimit="202.5" highVoltageLimit="247.5" topologyKind="NODE_BREAKER">
            <iidm:nodeBreakerTopology>
                <iidm:busbarSection id="_5caf27ed-d2f8-458a-834a-6b3193a982e6" name="BE-Busbar_3" node="4">
                    <iidm:alias type="CGMES.Terminal1">_62fc0a4e-00aa-4bf7-b1a0-3a5b2c0b5492</iidm:alias>
                </iidm:busbarSection>
                <iidm:busbarSection id="_c8ce5e08-5ee3-42d9-aa44-5792db252d9f" name="N1230992291" node="5">
                    <iidm:alias type="CGMES.Terminal1">_302fe23a-f64d-41bd-8a81-78130433916d</iidm:alias>
                </iidm:busbarSection>
                <iidm:busbarSection id="_63f25be7-7592-4cf1-8401-5772046ef2ae" name="N1230992288" node="6">
                    <iidm:alias type="CGMES.Terminal1">_8f1c492f-a7cc-4160-9a14-54f1743e4850</iidm:alias>
                </iidm:busbarSection>
                <iidm:switch id="_3b394dab-ab47-4022-98be-8123c6dfe7d4" name="CIRCB-1230992276" kind="BREAKER" retained="false" open="false" node1="8" node2="9">
                    <iidm:alias type="CGMES.Terminal1">_756dff85-b2c8-4a06-9a4c-4dde854e668b</iidm:alias>
                    <iidm:alias type="CGMES.Terminal2">_3f8b7c82-ca57-401a-9e2d-b719f8c83030</iidm:alias>
                </iidm:switch>
                <iidm:switch id="_ddc148fc-3abd-459d-aec1-396283e0def6" name="CIRCB-1230992285" kind="BREAKER" retained="false" open="false" node1="10" node2="11">
                    <iidm:alias type="CGMES.Terminal2">_fd2867a9-0c57-4cf2-acfb-439c4039b06b</iidm:alias>
                    <iidm:alias type="CGMES.Terminal1">_b501caa7-949f-49c6-b4d4-f50ef3625ede</iidm:alias>
                </iidm:switch>
                <iidm:switch id="_a603d890-5d9d-42ef-98d0-acf47d121c0e" name="BE_Breaker_4" kind="BREAKER" retained="false" open="false" node1="12" node2="13">
                    <iidm:alias type="CGMES.Terminal1">_529a048e-7681-4e59-aba1-f7474a562cba</iidm:alias>
                    <iidm:alias type="CGMES.Terminal2">_68d47f87-1a1f-4c63-80ca-d3becb4a47f9</iidm:alias>
                </iidm:switch>
                <iidm:internalConnection node1="4" node2="1"/>
                <iidm:internalConnection node1="5" node2="2"/>
                <iidm:internalConnection node1="6" node2="3"/>
                <iidm:internalConnection node1="7" node2="1"/>
                <iidm:internalConnection node1="8" node2="1"/>
                <iidm:internalConnection node1="9" node2="3"/>
                <iidm:internalConnection node1="10" node2="1"/>
                <iidm:internalConnection node1="11" node2="2"/>
                <iidm:internalConnection node1="12" node2="0"/>
                <iidm:internalConnection node1="13" node2="1"/>
                <iidm:internalConnection node1="14" node2="2"/>
                <iidm:internalConnection node1="15" node2="3"/>
                <iidm:internalConnection node1="16" node2="1"/>
                <iidm:internalConnection node1="17" node2="0"/>
                <iidm:bus v="223.8643" angle="-20.68084" nodes="0,1,2,3,4,5,6,7,8,9,10,11,12,13,14,15,16,17"/>
            </iidm:nodeBreakerTopology>
            <iidm:load id="_1c6beed6-1acf-42e7-ba55-0cc9f04bddd8" name="BE-Load_2" loadType="UNDEFINED" p0="200.0" q0="50.0" node="7" p="200.0" q="50.0">
                <iidm:alias type="CGMES.Terminal1">_a036b765-1669-4f64-acd3-1e8fbd513312</iidm:alias>
            </iidm:load>
        </iidm:voltageLevel>
        <iidm:voltageLevel id="_4ba71b59-ee2f-450b-9f7d-cc2f1cc5e386" name="10.5" nominalV="10.5" lowVoltageLimit="9.45" highVoltageLimit="11.55" topologyKind="NODE_BREAKER">
            <iidm:nodeBreakerTopology>
                <iidm:busbarSection id="_fd649fe1-bdf5-4062-98ea-bbb66f50402d" name="BE-Busbar_4" node="1">
                    <iidm:alias type="CGMES.Terminal1">_65b8c937-9b25-4b9e-addf-602dbc1337f9</iidm:alias>
                </iidm:busbarSection>
                <iidm:internalConnection node1="1" node2="0"/>
                <iidm:internalConnection node1="2" node2="0"/>
                <iidm:internalConnection node1="3" node2="0"/>
                <iidm:bus v="10.46589" angle="-17.75073" nodes="0,1,2,3"/>
            </iidm:nodeBreakerTopology>
            <iidm:generator id="_3a3b27be-b18b-4385-b557-6735d733baf0" name="BE-G1" energySource="OTHER" minP="-100.0" maxP="200.0" ratedS="300.0" voltageRegulatorOn="true" targetP="90.0" targetV="115.5" targetQ="100.256" node="2" p="-90.0" q="53.49768">
                <iidm:alias type="CGMES.Terminal1">_beffa353-7d10-421d-9c08-036b744b1cee</iidm:alias>
                <iidm:property name="CGMES.normalPF" value="0.0"/>
                <iidm:property name="CGMES.GeneratingUnit" value="_18993b11-2966-4bce-bab9-d86103f83b53"/>
                <iidm:property name="CGMES.RegulatingControl" value="_6ba406ce-78cf-4485-9b01-a34e584f1a8d"/>
                <iidm:regulatingTerminal id="_d771118f-36e9-4115-a128-cc3d9ce3e3da"/>
                <iidm:reactiveCapabilityCurve>
                    <iidm:point p="-100.0" minQ="-200.0" maxQ="200.0"/>
                    <iidm:point p="0.0" minQ="-300.0" maxQ="300.0"/>
                    <iidm:point p="200.0" minQ="-200.0" maxQ="200.0"/>
                </iidm:reactiveCapabilityCurve>
            </iidm:generator>
        </iidm:voltageLevel>
        <iidm:twoWindingsTransformer id="_a708c3bc-465d-4fe7-b6ef-6fa6408a62b0" name="BE-TR2_1" r="0.20476920750000005" x="1.0979918125" g="0.0" b="0.0" ratedU1="400.0" ratedU2="110.0" node1="16" voltageLevelId1="_469df5f7-058f-4451-a998-57a48e8a56fe" node2="13" voltageLevelId2="_8bbd7e74-ae20-4dce-8780-c20f8e18c2e0" p1="142.0258" q1="-209.8164" p2="-141.009" q2="215.3255">
            <iidm:alias type="CGMES.Terminal2">_2cd21c77-b8b1-4896-95fb-240f45b9ac89</iidm:alias>
            <iidm:alias type="CGMES.PhaseTapChanger1">_63454a73-f439-45bb-951a-e7b193986571</iidm:alias>
            <iidm:alias type="CGMES.TransformerEnd1">_bf76ac9d-0144-48f5-a24a-34ae15a455fb</iidm:alias>
            <iidm:alias type="CGMES.TransformerEnd2">_e22f3c30-63f5-47bf-a8c4-fee2483d426c</iidm:alias>
            <iidm:alias type="CGMES.Terminal1">_c3774d3f-f48c-4954-a0cf-b4572eb714fd</iidm:alias>
            <iidm:phaseTapChanger lowTapPosition="1" tapPosition="10" targetDeadband="1.625" regulationMode="ACTIVE_POWER_CONTROL" regulationValue="-65.0" regulating="false">
                <iidm:terminalRef id="_a708c3bc-465d-4fe7-b6ef-6fa6408a62b0" side="TWO"/>
                <iidm:step r="0.0" x="16.666689625247088" g="0.0" b="0.0" rho="1.0" alpha="8.602444609340731"/>
                <iidm:step r="0.0" x="14.00464892121457" g="0.0" b="0.0" rho="1.0" alpha="7.884389030643912"/>
                <iidm:step r="0.0" x="11.574090017532697" g="0.0" b="0.0" rho="1.0" alpha="7.166643396943946"/>
                <iidm:step r="0.0" x="9.375012914201488" g="0.0" b="0.0" rho="1.0" alpha="6.4491791834097425"/>
                <iidm:step r="0.0" x="7.4074176112209225" g="0.0" b="0.0" rho="1.0" alpha="5.7319679651977244"/>
                <iidm:step r="0.0" x="5.671304108591021" g="0.0" b="0.0" rho="1.0" alpha="5.014981407174461"/>
                <iidm:step r="0.0" x="4.1666724063117755" g="0.0" b="0.0" rho="1.0" alpha="4.298191253728038"/>
                <iidm:step r="0.0" x="2.893522504383171" g="0.0" b="0.0" rho="1.0" alpha="3.5815693186578987"/>
                <iidm:step r="0.0" x="1.8518544028052335" g="0.0" b="0.0" rho="1.0" alpha="2.865087475133015"/>
                <iidm:step r="0.0" x="1.0416681015779377" g="0.0" b="0.0" rho="1.0" alpha="2.1487176457083694"/>
                <iidm:step r="0.0" x="0.4629636007013084" g="0.0" b="0.0" rho="1.0" alpha="1.432431792389882"/>
                <iidm:step r="0.0" x="0.11574090017532097" g="0.0" b="0.0" rho="1.0" alpha="0.7162019067379666"/>
                <iidm:step r="0.0" x="0.0" g="0.0" b="0.0" rho="1.0" alpha="-0.0"/>
                <iidm:step r="0.0" x="0.11574090017532097" g="0.0" b="0.0" rho="1.0" alpha="-0.7162019067379666"/>
                <iidm:step r="0.0" x="0.4629636007013084" g="0.0" b="0.0" rho="1.0" alpha="-1.432431792389882"/>
                <iidm:step r="0.0" x="1.0416681015779377" g="0.0" b="0.0" rho="1.0" alpha="-2.1487176457083694"/>
                <iidm:step r="0.0" x="1.8518544028052335" g="0.0" b="0.0" rho="1.0" alpha="-2.865087475133015"/>
                <iidm:step r="0.0" x="2.893522504383171" g="0.0" b="0.0" rho="1.0" alpha="-3.5815693186578987"/>
                <iidm:step r="0.0" x="4.1666724063117755" g="0.0" b="0.0" rho="1.0" alpha="-4.298191253728038"/>
                <iidm:step r="0.0" x="5.671304108591021" g="0.0" b="0.0" rho="1.0" alpha="-5.014981407174461"/>
                <iidm:step r="0.0" x="7.4074176112209225" g="0.0" b="0.0" rho="1.0" alpha="-5.7319679651977244"/>
                <iidm:step r="0.0" x="9.375012914201488" g="0.0" b="0.0" rho="1.0" alpha="-6.4491791834097425"/>
                <iidm:step r="0.0" x="11.574090017532697" g="0.0" b="0.0" rho="1.0" alpha="-7.166643396943946"/>
                <iidm:step r="0.0" x="14.00464892121457" g="0.0" b="0.0" rho="1.0" alpha="-7.884389030643912"/>
                <iidm:step r="0.0" x="16.666689625247088" g="0.0" b="0.0" rho="1.0" alpha="-8.602444609340731"/>
            </iidm:phaseTapChanger>
            <iidm:currentLimits1 permanentLimit="938.1946"/>
            <iidm:currentLimits2 permanentLimit="3411.617"/>
        </iidm:twoWindingsTransformer>
        <iidm:twoWindingsTransformer id="_b94318f6-6d24-4f56-96b9-df2531ad6543" name="BE-TR2_2" r="0.2057" x="2.78472" g="0.0" b="0.0" ratedU1="220.0" ratedU2="110.0" node1="17" voltageLevelId1="_b10b171b-3bc5-4849-bb1f-61ed9ea1ec7c" node2="14" voltageLevelId2="_8bbd7e74-ae20-4dce-8780-c20f8e18c2e0" p1="-30.63016" q1="34.65786" p2="30.66271" q2="-34.21538">
            <iidm:alias type="CGMES.Terminal2">_ab7ece75-d726-48c8-a924-b0a9325e6d51</iidm:alias>
            <iidm:alias type="CGMES.TransformerEnd1">_3c59d1b0-1ee9-4ca3-9086-4fe102b51b21</iidm:alias>
            <iidm:alias type="CGMES.PhaseTapChanger1">_36b83adb-3d45-4693-8967-96627b5f9ec9</iidm:alias>
            <iidm:alias type="CGMES.Terminal1">_4c19ace6-c825-4c5b-87d9-031e6e6a3379</iidm:alias>
            <iidm:alias type="CGMES.TransformerEnd2">_ba56158e-0c51-448d-999b-44cb0b3cebf5</iidm:alias>
            <iidm:phaseTapChanger lowTapPosition="1" tapPosition="10" regulationMode="FIXED_TAP">
                <iidm:step r="0.0" x="6.666738487172854" g="0.0" b="0.0" rho="1.14505222931285" alpha="4.926567934889113"/>
                <iidm:step r="0.0" x="5.601912201027185" g="0.0" b="0.0" rho="1.1317335959045691" alpha="4.4625049779277965"/>
                <iidm:step r="0.0" x="4.629679504981145" g="0.0" b="0.0" rho="1.1186503607803493" alpha="4.009142308337196"/>
                <iidm:step r="0.0" x="3.7500403990347353" g="0.0" b="0.0" rho="1.105799285684086" alpha="3.5661689080738133"/>
                <iidm:step r="0.0" x="2.96299488318794" g="0.0" b="0.0" rho="1.0931769923157548" alpha="3.133282879390916"/>
                <iidm:step r="0.0" x="2.268542957440758" g="0.0" b="0.0" rho="1.0807799860839817" alpha="2.7101913084587235"/>
                <iidm:step r="0.0" x="1.6666846217932214" g="0.0" b="0.0" rho="1.0686046775541467" alpha="2.296610111393503"/>
                <iidm:step r="0.0" x="1.1574198762452823" g="0.0" b="0.0" rho="1.0566474017760137" alpha="1.892263865774221"/>
                <iidm:step r="0.0" x="0.740748720796989" g="0.0" b="0.0" rho="1.0449044356636736" alpha="1.496885630374893"/>
                <iidm:step r="0.0" x="0.4166711554483093" g="0.0" b="0.0" rho="1.0333720135895301" alpha="1.1102167555229658"/>
                <iidm:step r="0.0" x="0.18518718019924324" g="0.0" b="0.0" rho="1.0220463413432221" alpha="0.7320066862066437"/>
                <iidm:step r="0.0" x="0.04629679504980683" g="0.0" b="0.0" rho="1.0109236085958764" alpha="0.36201275979482317"/>
                <iidm:step r="0.0" x="0.0" g="0.0" b="0.0" rho="1.0" alpha="-0.0"/>
                <iidm:step r="0.0" x="0.04629679504980683" g="0.0" b="0.0" rho="0.9892717050456789" alpha="-0.3542590914949466"/>
                <iidm:step r="0.0" x="0.18518718019924324" g="0.0" b="0.0" rho="0.9787349267845926" alpha="-0.7009847445128217"/>
                <iidm:step r="0.0" x="0.4166711554483093" g="0.0" b="0.0" rho="0.9683858895247094" alpha="-1.040390129895497"/>
                <iidm:step r="0.0" x="0.740748720796989" g="0.0" b="0.0" rho="0.958220845590376" alpha="-1.3726815681386877"/>
                <iidm:step r="0.0" x="1.1574198762452823" g="0.0" b="0.0" rho="0.9482360812348898" alpha="-1.698058736365395"/>
                <iidm:step r="0.0" x="1.6666846217932054" g="0.0" b="0.0" rho="0.9384279217854995" alpha="-2.016714872973585"/>
                <iidm:step r="0.0" x="2.268542957440758" g="0.0" b="0.0" rho="0.9287927360941372" alpha="-2.32883697939856"/>
                <iidm:step r="0.0" x="2.96299488318794" g="0.0" b="0.0" rho="0.9193269403610014" alpha="-2.6346060185232267"/>
                <iidm:step r="0.0" x="3.7500403990347353" g="0.0" b="0.0" rho="0.9100270013923849" alpha="-2.9341971093513304"/>
                <iidm:step r="0.0" x="4.629679504981145" g="0.0" b="0.0" rho="0.9008894393488354" alpha="-3.227779717630807"/>
                <iidm:step r="0.0" x="5.601912201027185" g="0.0" b="0.0" rho="0.8919108300348412" alpha="-3.515517842177712"/>
                <iidm:step r="0.0" x="6.666738487172854" g="0.0" b="0.0" rho="0.8830878067767173" alpha="-3.797570196706609"/>
            </iidm:phaseTapChanger>
            <iidm:currentLimits1 permanentLimit="1705.808"/>
            <iidm:currentLimits2 permanentLimit="3411.617"/>
        </iidm:twoWindingsTransformer>
        <iidm:twoWindingsTransformer id="_e482b89a-fa84-4ea9-8e70-a83d44790957" name="BE-TR2_3" r="9.481455983629422E-4" x="0.05291146110953372" g="0.0019138297721711202" b="-0.00917007126111426" ratedU1="110.3438" ratedU2="10.5" node1="15" voltageLevelId1="_8bbd7e74-ae20-4dce-8780-c20f8e18c2e0" node2="3" voltageLevelId2="_4ba71b59-ee2f-450b-9f7d-cc2f1cc5e386" p1="-89.68368" q1="59.63991" p2="90.0" q2="-53.49768">
            <iidm:alias type="CGMES.Terminal1">_ca7974cf-b25e-4898-9221-7154233e5eb2</iidm:alias>
            <iidm:alias type="CGMES.TransformerEnd2">_35651e25-a77a-46a1-92f4-443d6acce90e</iidm:alias>
            <iidm:alias type="CGMES.Terminal2">_1182d878-2eaa-4eec-91be-ce7b2b1e7f9a</iidm:alias>
            <iidm:alias type="CGMES.TransformerEnd1">_f58281c5-862a-465e-97ec-d809be6e24ab</iidm:alias>
            <iidm:alias type="CGMES.RatioTapChanger2">_83cc66dd-8d93-4a2c-8103-f1f5a9cf7e2e</iidm:alias>
            <iidm:ratioTapChanger lowTapPosition="1" tapPosition="14" loadTapChangingCapabilities="true" regulating="false">
                <iidm:step r="-23.961600000000004" x="-23.961600000000004" g="31.512498947900024" b="31.512498947900024" rho="0.872"/>
                <iidm:step r="-22.560000000000002" x="-22.560000000000002" g="29.132231404958688" b="29.132231404958688" rho="0.8799999999999999"/>
                <iidm:step r="-21.145599999999998" x="-21.145599999999998" g="26.816005194383564" b="26.816005194383564" rho="0.888"/>
...